<?xml version="1.0" encoding="ISO-8859-1"?>
<febio_spec version="4.0">
	<Module type="solid"/>
	<Globals>
		<Constants>
			<T>0</T>
			<P>0</P>
			<R>8.31446</R>
			<Fc>96485.3</Fc>
		</Constants>
	</Globals>
	<Material>
		<material id="1" name="Material1" type="LCE444">
			<density>1e-16</density>
			<mu>5e-2</mu>
			<K>1e5</K>
      <a>5.5</a>
      <B>100</B>
        </material>
	</Material>
	<Mesh>
		<Nodes name="Object1">
			<node id="1">-5,-5,0</node>
			<node id="2">5,-5,0</node>
			<node id="3">5,5,0</node>
			<node id="4">-5,5,0</node>
			<node id="5">-5,-5,0.1</node>
			<node id="6">5,-5,0.1</node>
			<node id="7">5,5,0.1</node>
			<node id="8">-5,5,0.1</node>
			<node id="9">-4.85714286,-5,0</node>
			<node id="10">-4.71428571,-5,0</node>
			<node id="11">-4.57142857,-5,0</node>
			<node id="12">-4.42857143,-5,0</node>
			<node id="13">-4.28571429,-5,0</node>
			<node id="14">-4.14285714,-5,0</node>
			<node id="15">-4,-5,0</node>
			<node id="16">-3.85714286,-5,0</node>
			<node id="17">-3.71428571,-5,0</node>
			<node id="18">-3.57142857,-5,0</node>
			<node id="19">-3.42857143,-5,0</node>
			<node id="20">-3.28571429,-5,0</node>
<!-- ... 10062 like lines cut -->
		</Nodes>
		<Elements type="hex8" name="Part1">
			<elem id="1">1,9,5253,491,5,146,5322,492</elem>
			<elem id="2">9,10,5254,5253,146,145,5323,5322</elem>
			<elem id="3">10,11,5255,5254,145,144,5324,5323</elem>
			<elem id="4">11,12,5256,5255,144,143,5325,5324</elem>
			<elem id="5">12,13,5257,5256,143,142,5326,5325</elem>
			<elem id="6">13,14,5258,5257,142,141,5327,5326</elem>
			<elem id="7">14,15,5259,5258,141,140,5328,5327</elem>
			<elem id="8">15,16,5260,5259,140,139,5329,5328</elem>
			<elem id="9">16,17,5261,5260,139,138,5330,5329</elem>
			<elem id="10">17,18,5262,5261,138,137,5331,5330</elem>
			<elem id="11">18,19,5263,5262,137,136,5332,5331</elem>
			<elem id="12">19,20,5264,5263,136,135,5333,5332</elem>
			<elem id="13">20,21,5265,5264,135,134,5334,5333</elem>
			<elem id="14">21,22,5266,5265,134,133,5335,5334</elem>
			<elem id="15">22,23,5267,5266,133,132,5336,5335</elem>
			<elem id="16">23,24,5268,5267,132,131,5337,5336</elem>
			<elem id="17">24,25,5269,5268,131,130,5338,5337</elem>
			<elem id="18">25,26,5270,5269,130,129,5339,5338</elem>
			<elem id="19">26,27,5271,5270,129,128,5340,5339</elem>
			<elem id="20">27,28,5272,5271,128,127,5341,5340</elem>
<!-- ... 4880 like lines cut -->
		</Elements>
		<NodeSet name="Velocity1">
			1, 2, 3, 4, 5, 6, 7, 8,
			9, 10, 11, 12, 13, 14, 15, 16,
			17, 18, 19, 20, 21, 22, 23, 24,
			25, 26, 27, 28, 29, 30, 31, 32,
			33, 34, 35, 36, 37, 38, 39, 40,
			41, 42, 43, 44, 45, 46, 47, 48,
			49, 50, 51, 52, 53, 54, 55, 56,
			57, 58, 59, 60, 61, 62, 63, 64,
			65, 66, 67, 68, 69, 70, 71, 72,
			73, 74, 75, 76, 77, 78, 79, 80,
			81, 82, 83, 84, 85, 86, 87, 88,
			89, 90, 91, 92, 93, 94, 95, 96,
			97, 98, 99, 100, 101, 102, 103, 104,
			105, 106, 107, 108, 109, 110, 111, 112,
			113, 114, 115, 116, 117, 118, 119, 120,
			121, 122, 123, 124, 125, 126, 127, 128,
			129, 130, 131, 132, 133, 134, 135, 136,
			137, 138, 139, 140, 141, 142, 143, 144,
			145, 146, 147, 148, 149, 150, 151, 152,
			153, 154, 155, 156, 157, 158, 159, 160,
<!-- ... 1241 like lines cut -->
		</NodeSet>
        <NodeSet name="1">1</NodeSet><NodeSet name="2">2</NodeSet><NodeSet name="3">3</NodeSet><NodeSet name="4">4</NodeSet><NodeSet name="5">5</NodeSet><NodeSet name="6">6</NodeSet><NodeSet name="7">7</NodeSet><NodeSet name="8">8</NodeSet><NodeSet name="9">9</NodeSet><NodeSet name="10">10</NodeSet><NodeSet name="11">11</NodeSet><NodeSet name="12">12</NodeSet><NodeSet name="13">13</NodeSet><NodeSe
		<Surface name="ZeroDisplacement1">
			<quad4 id="1">4,423,560,8</quad4>
			<quad4 id="2">423,424,559,560</quad4>
			<quad4 id="3">424,425,558,559</quad4>
			<quad4 id="4">425,426,557,558</quad4>
			<quad4 id="5">426,427,556,557</quad4>
			<quad4 id="6">427,428,555,556</quad4>
			<quad4 id="7">428,429,554,555</quad4>
			<quad4 id="8">429,430,553,554</quad4>
			<quad4 id="9">430,431,552,553</quad4>
			<quad4 id="10">431,432,551,552</quad4>
			<quad4 id="11">432,433,550,551</quad4>
			<quad4 id="12">433,434,549,550</quad4>
			<quad4 id="13">434,435,548,549</quad4>
			<quad4 id="14">435,436,547,548</quad4>
			<quad4 id="15">436,437,546,547</quad4>
			<quad4 id="16">437,438,545,546</quad4>
			<quad4 id="17">438,439,544,545</quad4>
			<quad4 id="18">439,440,543,544</quad4>
			<quad4 id="19">440,441,542,543</quad4>
			<quad4 id="20">441,442,541,542</quad4>
<!-- ... 50 like lines cut -->
		</Surface>
		<Surface name="ZeroDisplacement2">
			<quad4 id="1">2,147,284,6</quad4>
			<quad4 id="2">147,148,283,284</quad4>
			<quad4 id="3">148,149,282,283</quad4>
			<quad4 id="4">149,150,281,282</quad4>
			<quad4 id="5">150,151,280,281</quad4>
			<quad4 id="6">151,152,279,280</quad4>
			<quad4 id="7">152,153,278,279</quad4>
			<quad4 id="8">153,154,277,278</quad4>
			<quad4 id="9">154,155,276,277</quad4>
			<quad4 id="10">155,156,275,276</quad4>
			<quad4 id="11">156,157,274,275</quad4>
			<quad4 id="12">157,158,273,274</quad4>
			<quad4 id="13">158,159,272,273</quad4>
			<quad4 id="14">159,160,271,272</quad4>
			<quad4 id="15">160,161,270,271</quad4>
			<quad4 id="16">161,162,269,270</quad4>
			<quad4 id="17">162,163,268,269</quad4>
			<quad4 id="18">163,164,267,268</quad4>
			<quad4 id="19">164,165,266,267</quad4>
			<quad4 id="20">165,166,265,266</quad4>
<!-- ... 50 like lines cut -->
		</Surface>
		<Surface name="PrescribedDisplacement3">
			<quad4 id="1">2,147,284,6</quad4>
			<quad4 id="2">147,148,283,284</quad4>
			<quad4 id="3">148,149,282,283</quad4>
			<quad4 id="4">149,150,281,282</quad4>
			<quad4 id="5">150,151,280,281</quad4>
			<quad4 id="6">151,152,279,280</quad4>
			<quad4 id="7">152,153,278,279</quad4>
			<quad4 id="8">153,154,277,278</quad4>
			<quad4 id="9">154,155,276,277</quad4>
			<quad4 id="10">155,156,275,276</quad4>
			<quad4 id="11">156,157,274,275</quad4>
			<quad4 id="12">157,158,273,274</quad4>
			<quad4 id="13">158,159,272,273</quad4>
			<quad4 id="14">159,160,271,272</quad4>
			<quad4 id="15">160,161,270,271</quad4>
			<quad4 id="16">161,162,269,270</quad4>
			<quad4 id="17">162,163,268,269</quad4>
			<quad4 id="18">163,164,267,268</quad4>
			<quad4 id="19">164,165,266,267</quad4>
			<quad4 id="20">165,166,265,266</quad4>
<!-- ... 50 like lines cut -->
		</Surface>
		<Surface name="PrescribedDisplacement4">
			<quad4 id="1">4,423,560,8</quad4>
			<quad4 id="2">423,424,559,560</quad4>
			<quad4 id="3">424,425,558,559</quad4>
			<quad4 id="4">425,426,557,558</quad4>
			<quad4 id="5">426,427,556,557</quad4>
			<quad4 id="6">427,428,555,556</quad4>
			<quad4 id="7">428,429,554,555</quad4>
			<quad4 id="8">429,430,553,554</quad4>
			<quad4 id="9">430,431,552,553</quad4>
			<quad4 id="10">431,432,551,552</quad4>
			<quad4 id="11">432,433,550,551</quad4>
			<quad4 id="12">433,434,549,550</quad4>
			<quad4 id="13">434,435,548,549</quad4>
			<quad4 id="14">435,436,547,548</quad4>
			<quad4 id="15">436,437,546,547</quad4>
			<quad4 id="16">437,438,545,546</quad4>
			<quad4 id="17">438,439,544,545</quad4>
			<quad4 id="18">439,440,543,544</quad4>
			<quad4 id="19">440,441,542,543</quad4>
			<quad4 id="20">441,442,541,542</quad4>
<!-- ... 50 like lines cut -->
		</Surface>
		<Surface name="Velocity1">
			<quad4 id="1">4,423,560,8</quad4>
			<quad4 id="2">423,424,559,560</quad4>
			<quad4 id="3">424,425,558,559</quad4>
			<quad4 id="4">425,426,557,558</quad4>
			<quad4 id="5">426,427,556,557</quad4>
			<quad4 id="6">427,428,555,556</quad4>
			<quad4 id="7">428,429,554,555</quad4>
			<quad4 id="8">429,430,553,554</quad4>
			<quad4 id="9">430,431,552,553</quad4>
			<quad4 id="10">431,432,551,552</quad4>
			<quad4 id="11">432,433,550,551</quad4>
			<quad4 id="12">433,434,549,550</quad4>
			<quad4 id="13">434,435,548,549</quad4>
			<quad4 id="14">435,436,547,548</quad4>
			<quad4 id="15">436,437,546,547</quad4>
			<quad4 id="16">437,438,545,546</quad4>
			<quad4 id="17">438,439,544,545</quad4>
			<quad4 id="18">439,440,543,544</quad4>
			<quad4 id="19">440,441,542,543</quad4>
			<quad4 id="20">441,442,541,542</quad4>
<!-- ... 50 like lines cut -->
		</Surface>
	</Mesh>
	<MeshDomains>
		<SolidDomain name="Part1" mat="Material1"/>
	</MeshDomains>
	<Initial>
		<!-- <ic name="Initial Angle" node_set="Velocity1" type="director angle"> -->
			<!-- <value>1.5707963267948966</value> -->
		<!-- </ic> -->
        <ic name="InitialAngle" node_set="1" type="director angle"><value>1.57079</value></ic><ic name="InitialAngle" node_set="2" type="director angle"><value>1.57079</value></ic><ic name="InitialAngle" node_set="3" type="director angle"><value>1.57079</value></ic><ic name="InitialAngle" node_set="4" type="director angle"><value>1.57079</value></ic><ic name="InitialAngle" node_set="5" type="direc
	</Initial>
	<Step>
		<step id="1" name="Step1">
			<Control>
				<analysis>STATIC</analysis>
				<time_steps>100</time_steps>
				<step_size>0.01</step_size>
				<plot_zero_state>0</plot_zero_state>
				<plot_range>0,-1</plot_range>
				<plot_level>PLOT_MAJOR_ITRS</plot_level>
				<output_level>OUTPUT_MAJOR_ITRS</output_level>
				<plot_stride>1</plot_stride>
				<adaptor_re_solve>1</adaptor_re_solve>
				<time_stepper type="default">
					<max_retries>10</max_retries>
					<opt_iter>11</opt_iter>
					<dtmin>0</dtmin>
					<dtmax >0.01</dtmax>
					<aggressiveness>1</aggressiveness>
					<cutback>0.5</cutback>
					<dtforce>0</dtforce>
				</time_stepper>
				<solver type="LCESolver">
					<symmetric_stiffness>non-symmetric</symmetric_stiffness>
					<equation_scheme>block</equation_scheme>
					<equation_order>default</equation_order>
					<optimize_bw>1</optimize_bw>
					<lstol>0</lstol>
					<lsmin>0.01</lsmin>
					<lsiter>5</lsiter>
					<max_refs>7</max_refs>
					<check_zero_diagonal>0</check_zero_diagonal>
					<zero_diagonal_tol>0</zero_diagonal_tol>
					<force_partition>0</force_partition>
					<reform_each_time_step>1</reform_each_time_step>
					<reform_augment>0</reform_augment>
					<diverge_reform>1</diverge_reform>
					<min_residual>1e-30</min_residual>
					<max_residual>0</max_residual>
					<dtol>0.005</dtol>
					<etol>0.01</etol>
					<rtol>0</rtol>
					<rhoi>-2</rhoi>
					<alpha>1</alpha>
					<beta>0.25</beta>
					<gamma>0.5</gamma>
					<logSolve>0</logSolve>
					<arc_length>0</arc_length>
					<arc_length_scale>0</arc_length_scale>
					<qn_method type="Broyden">
						<max_ups>0</max_ups>
						<max_buffer_size>0</max_buffer_size>
						<cycle_buffer>1</cycle_buffer>
						<cmax>100000</cmax>
					</qn_method>
				</solver>
			</Control>
			<Boundary>
				<bc name="ZeroDisplacement1" node_set="@surface:ZeroDisplacement1" type="zero displacement">
					<x_dof>0</x_dof>
					<y_dof>1</y_dof>
					<z_dof>1</z_dof>
				</bc>
				<bc name="ZeroDisplacement2" node_set="@surface:ZeroDisplacement2" type="zero displacement">
					<x_dof>0</x_dof>
					<y_dof>1</y_dof>
					<z_dof>1</z_dof>
				</bc>
				<bc name="PrescribedDisplacement3" node_set="@surface:PrescribedDisplacement3" type="prescribed displacement">
					<dof>x</dof>
					<value lc="1">5</value>
					<relative>0</relative>
				</bc>
				<bc name="PrescribedDisplacement4" node_set="@surface:PrescribedDisplacement4" type="prescribed displacement">
					<dof>x</dof>
					<value lc="2">-5</value>
					<relative>0</relative>
				</bc>
                <!-- <bc name="PrescribedAngle1" node_set="@surface:PrescribedDisplacement3" type="prescribed LCE angle"> -->
                    <!-- <dof>vart</dof> -->
                    <!-- <value>1.5707963267948966</value> -->
                <!-- </bc> -->
                 <!-- <bc name="PrescribedAngle2" node_set="@surface:PrescribedDisplacement4" type="prescribed LCE angle"> -->
                    <!-- <dof>vart</dof> -->
                    <!-- <value>1.5707963267948966</value> -->
                <!-- </bc> -->
			</Boundary>
		</step>
	</Step>
	<LoadData>
		<load_controller id="1" name="LC1" type="loadcurve">
			<interpolate>LINEAR</interpolate>
			<extend>CONSTANT</extend>
			<points>
				<pt>0,0</pt>
				<pt>1,1</pt>
			</points>
		</load_controller>
		<load_controller id="2" name="LC2" type="loadcurve">
			<interpolate>LINEAR</interpolate>
			<extend>CONSTANT</extend>
			<points>
				<pt>0,0</pt>
				<pt>1,1</pt>
			</points>
		</load_controller>
        <load_controller id="3" name="LC3" type="loadcurve">
			<interpolate>STEP</interpolate>
			<points>
				<pt>0,0</pt>
				<pt>0.06,0.01</pt>
                <pt>0.15,0.001</pt>
                <pt>1,0.01</pt>
			</points>
		</load_controller>
	</LoadData>
	<Output>
		<plotfile type="febio">
			<var type="displacement"/>
            <var type="director angle"/>
            <var type="Cosine LCE angle"/>
            <var type="Average LCE PK1"/>
            <!-- <var type="LCE Pressure"/> -->
		</plotfile>
	</Output>
</febio_spec>
