<?xml version="1.0" encoding="ISO-8859-1"?>
<febio_spec version="4.0">
	<Module type="solid"/>
	<Globals>
		<Constants>
			<T>0</T>
			<P>0</P>
			<R>8.31446</R>
			<Fc>96485.3</Fc>
		</Constants>
	</Globals>
	<Material>
		<material id="1" name="Material1" type="LCE444">
			<density>1e-16</density>
			<mu>0.1</mu>
			<K>0.01</K>
      <a>2</a>
      <B>100</B>
        </material>
	</Material>
	<Mesh>
		<Nodes name="Object1">
			<node id="1">-2,-0.5,0</node>
			<node id="2">2,-0.5,0</node>
			<node id="3">2,0.5,0</node>
			<node id="4">-2,0.5,0</node>
			<node id="5">-2,-0.5,0.01</node>
			<node id="6">2,-0.5,0.01</node>
			<node id="7">2,0.5,0.01</node>
			<node id="8">-2,0.5,0.01</node>
			<node id="9">-1.95,-0.5,0</node>
			<node id="10">-1.9,-0.5,0</node>
			<node id="11">-1.85,-0.5,0</node>
			<node id="12">-1.8,-0.5,0</node>
			<node id="13">-1.75,-0.5,0</node>
			<node id="14">-1.7,-0.5,0</node>
			<node id="15">-1.65,-0.5,0</node>
			<node id="16">-1.6,-0.5,0</node>
			<node id="17">-1.55,-0.5,0</node>
			<node id="18">-1.5,-0.5,0</node>
			<node id="19">-1.45,-0.5,0</node>
			<node id="20">-1.4,-0.5,0</node>
<!-- ... 11482 like lines cut -->
		</Nodes>
		<Elements type="hex8" name="Part1">
			<elem id="1">1,9,5973,531,5,166,6052,532</elem>
			<elem id="2">9,10,5974,5973,166,165,6053,6052</elem>
			<elem id="3">10,11,5975,5974,165,164,6054,6053</elem>
			<elem id="4">11,12,5976,5975,164,163,6055,6054</elem>
			<elem id="5">12,13,5977,5976,163,162,6056,6055</elem>
			<elem id="6">13,14,5978,5977,162,161,6057,6056</elem>
			<elem id="7">14,15,5979,5978,161,160,6058,6057</elem>
			<elem id="8">15,16,5980,5979,160,159,6059,6058</elem>
			<elem id="9">16,17,5981,5980,159,158,6060,6059</elem>
			<elem id="10">17,18,5982,5981,158,157,6061,6060</elem>
			<elem id="11">18,19,5983,5982,157,156,6062,6061</elem>
			<elem id="12">19,20,5984,5983,156,155,6063,6062</elem>
			<elem id="13">20,21,5985,5984,155,154,6064,6063</elem>
			<elem id="14">21,22,5986,5985,154,153,6065,6064</elem>
			<elem id="15">22,23,5987,5986,153,152,6066,6065</elem>
			<elem id="16">23,24,5988,5987,152,151,6067,6066</elem>
			<elem id="17">24,25,5989,5988,151,150,6068,6067</elem>
			<elem id="18">25,26,5990,5989,150,149,6069,6068</elem>
			<elem id="19">26,27,5991,5990,149,148,6070,6069</elem>
			<elem id="20">27,28,5992,5991,148,147,6071,6070</elem>
<!-- ... 5580 like lines cut -->
		</Elements>
		<NodeSet name="InitialAngle">
			1, 2, 3, 4, 5, 6, 7, 8,
			9, 10, 11, 12, 13, 14, 15, 16,
			17, 18, 19, 20, 21, 22, 23, 24,
			25, 26, 27, 28, 29, 30, 31, 32,
			33, 34, 35, 36, 37, 38, 39, 40,
			41, 42, 43, 44, 45, 46, 47, 48,
			49, 50, 51, 52, 53, 54, 55, 56,
			57, 58, 59, 60, 61, 62, 63, 64,
			65, 66, 67, 68, 69, 70, 71, 72,
			73, 74, 75, 76, 77, 78, 79, 80,
			81, 82, 83, 84, 85, 86, 87, 88,
			89, 90, 91, 92, 93, 94, 95, 96,
			97, 98, 99, 100, 101, 102, 103, 104,
			105, 106, 107, 108, 109, 110, 111, 112,
			113, 114, 115, 116, 117, 118, 119, 120,
			121, 122, 123, 124, 125, 126, 127, 128,
			129, 130, 131, 132, 133, 134, 135, 136,
			137, 138, 139, 140, 141, 142, 143, 144,
			145, 146, 147, 148, 149, 150, 151, 152,
			153, 154, 155, 156, 157, 158, 159, 160,
<!-- ... 1418 like lines cut -->
		</NodeSet>
        <NodeSet name="1">1</NodeSet><NodeSet name="2">2</NodeSet><NodeSet name="3">3</NodeSet><NodeSet name="4">4</NodeSet><NodeSet name="5">5</NodeSet><NodeSet name="6">6</NodeSet><NodeSet name="7">7</NodeSet><NodeSet name="8">8</NodeSet><NodeSet name="9">9</NodeSet><NodeSet name="10">10</NodeSet><NodeSet name="11">11</NodeSet><NodeSet name="12">12</NodeSet><NodeSet name="13">13</NodeSet><NodeSe
		<Surface name="LeftBoundary">
			<quad4 id="1">4,463,600,8</quad4>
			<quad4 id="2">463,464,599,600</quad4>
			<quad4 id="3">464,465,598,599</quad4>
			<quad4 id="4">465,466,597,598</quad4>
			<quad4 id="5">466,467,596,597</quad4>
			<quad4 id="6">467,468,595,596</quad4>
			<quad4 id="7">468,469,594,595</quad4>
			<quad4 id="8">469,470,593,594</quad4>
			<quad4 id="9">470,471,592,593</quad4>
			<quad4 id="10">471,472,591,592</quad4>
			<quad4 id="11">472,473,590,591</quad4>
			<quad4 id="12">473,474,589,590</quad4>
			<quad4 id="13">474,475,588,589</quad4>
			<quad4 id="14">475,476,587,588</quad4>
			<quad4 id="15">476,477,586,587</quad4>
			<quad4 id="16">477,478,585,586</quad4>
			<quad4 id="17">478,479,584,585</quad4>
			<quad4 id="18">479,480,583,584</quad4>
			<quad4 id="19">480,481,582,583</quad4>
			<quad4 id="20">481,482,581,582</quad4>
<!-- ... 50 like lines cut -->
		</Surface>
		<Surface name="RightBoundary">
			<quad4 id="1">2,167,304,6</quad4>
			<quad4 id="2">167,168,303,304</quad4>
			<quad4 id="3">168,169,302,303</quad4>
			<quad4 id="4">169,170,301,302</quad4>
			<quad4 id="5">170,171,300,301</quad4>
			<quad4 id="6">171,172,299,300</quad4>
			<quad4 id="7">172,173,298,299</quad4>
			<quad4 id="8">173,174,297,298</quad4>
			<quad4 id="9">174,175,296,297</quad4>
			<quad4 id="10">175,176,295,296</quad4>
			<quad4 id="11">176,177,294,295</quad4>
			<quad4 id="12">177,178,293,294</quad4>
			<quad4 id="13">178,179,292,293</quad4>
			<quad4 id="14">179,180,291,292</quad4>
			<quad4 id="15">180,181,290,291</quad4>
			<quad4 id="16">181,182,289,290</quad4>
			<quad4 id="17">182,183,288,289</quad4>
			<quad4 id="18">183,184,287,288</quad4>
			<quad4 id="19">184,185,286,287</quad4>
			<quad4 id="20">185,186,285,286</quad4>
<!-- ... 50 like lines cut -->
		</Surface>
	</Mesh>
	<MeshDomains>
		<SolidDomain name="Part1" mat="Material1"/>
	</MeshDomains>
	<Boundary>
		<bc name="ZeroDisplacement1" node_set="@surface:LeftBoundary" type="zero displacement">
			<x_dof>1</x_dof>
			<y_dof>1</y_dof>
			<z_dof>1</z_dof>
		</bc>
		<bc name="ZeroDisplacement2" node_set="@surface:RightBoundary" type="zero displacement">
			<x_dof>1</x_dof>
			<y_dof>1</y_dof>
			<z_dof>1</z_dof>
		</bc>
	</Boundary>
	<Initial>
		<ic name="InitialAngle" node_set="1" type="director angle"><value>1.57079</value></ic><ic name="InitialAngle" node_set="2" type="director angle"><value>1.57079</value></ic><ic name="InitialAngle" node_set="3" type="director angle"><value>1.57079</value></ic><ic name="InitialAngle" node_set="4" type="director angle"><value>1.57079</value></ic><ic name="InitialAngle" node_set="5" type="director an
	</Initial>
<Step>
		<step id="1" name="Step1">
			<Control>
				<analysis>STATIC</analysis>
				<time_steps>100</time_steps>
				<step_size>0.01</step_size>
				<plot_zero_state>0</plot_zero_state>
				<plot_range>0,-1</plot_range>
				<plot_level>PLOT_MAJOR_ITRS</plot_level>
				<output_level>OUTPUT_MAJOR_ITRS</output_level>
				<plot_stride>1</plot_stride>
				<adaptor_re_solve>1</adaptor_re_solve>
				<time_stepper type="default">
					<max_retries>10</max_retries>
					<opt_iter>11</opt_iter>
					<dtmin>0</dtmin>
					<dtmax >0.01</dtmax>
					<aggressiveness>1</aggressiveness>
					<cutback>0.5</cutback>
					<dtforce>0</dtforce>
				</time_stepper>
				<solver type="LCESolver">
					<symmetric_stiffness>non-symmetric</symmetric_stiffness>
					<equation_scheme>block</equation_scheme>
					<equation_order>default</equation_order>
					<optimize_bw>1</optimize_bw>
					<lstol>0</lstol>
					<lsmin>0.01</lsmin>
					<lsiter>5</lsiter>
					<max_refs>20</max_refs>
					<check_zero_diagonal>0</check_zero_diagonal>
					<zero_diagonal_tol>0</zero_diagonal_tol>
					<force_partition>0</force_partition>
					<reform_each_time_step>1</reform_each_time_step>
					<reform_augment>0</reform_augment>
					<diverge_reform>1</diverge_reform>
					<min_residual>1e-30</min_residual>
					<max_residual>0</max_residual>
					<dtol>0.005</dtol>
					<etol>0.01</etol>
					<rtol>0</rtol>
					<rhoi>-2</rhoi>
					<alpha>1</alpha>
					<beta>0.25</beta>
					<gamma>0.5</gamma>
					<logSolve>0</logSolve>
					<arc_length>0</arc_length>
					<arc_length_scale>0</arc_length_scale>
					<qn_method type="Broyden">
						<max_ups>0</max_ups>
						<max_buffer_size>0</max_buffer_size>
						<cycle_buffer>1</cycle_buffer>
						<cmax>100000</cmax>
					</qn_method>
				</solver>
			</Control>
			<Boundary>
				<bc name="PrescribedDisplacement3" node_set="@surface:LeftBoundary" type="prescribed displacement">
					<dof>x</dof>
					<value lc="1">-4</value>
					<relative>0</relative>
				</bc>
				<bc name="PrescribedDisplacement4" node_set="@surface:RightBoundary" type="prescribed displacement">
					<dof>x</dof>
					<value lc="2">4</value>
					<relative>0</relative>
				</bc>
			</Boundary>
		</step>
	</Step>
	<LoadData>
		<load_controller id="1" name="LC1" type="loadcurve">
			<interpolate>LINEAR</interpolate>
			<extend>CONSTANT</extend>
			<points>
				<pt>0,0</pt>
				<pt>1,1</pt>
			</points>
		</load_controller>
		<load_controller id="2" name="LC3" type="loadcurve">
			<interpolate>LINEAR</interpolate>
			<extend>CONSTANT</extend>
			<points>
				<pt>0,0</pt>
				<pt>1,1</pt>
			</points>
		</load_controller>
	</LoadData>
	<Output>
		<plotfile type="febio">
			<var type="displacement"/>
            <var type="director angle"/>
            <var type="Cosine LCE angle"/>
            <var type="Average LCE PK1"/>
            <!-- <var type="LCE Pressure"/> -->
		</plotfile>
	</Output>
</febio_spec>
